ligands/25-ref


 75 83  0  0  0  0  0  0  0  0999 V2000
   37.6843   32.0146   30.7922 C   0  0  0  0  0  0  0  0  0  0  0  0
   38.4785   30.9379   30.1063 C   0  0  0  0  0  0  0  0  0  0  0  0
   38.1048   30.6263   28.7182 C   0  0  0  0  0  0  0  0  0  0  0  0
   38.9073   29.6063   28.4435 C   0  0  0  0  0  0  0  0  0  0  0  0
   39.8135   29.3441   29.5441 C   0  0  0  0  0  0  0  0  0  0  0  0
   39.4591   30.2057   30.5738 N   0  0  0  0  0  0  0  0  0  0  0  0
   40.8176   28.4344   29.5095 C   0  0  0  0  0  0  0  0  0  0  0  0
   41.7276   28.1848   30.5968 C   0  0  0  0  0  0  0  0  0  0  0  0
   42.7997   27.3103   30.6424 C   0  0  0  0  0  0  0  0  0  0  0  0
   43.3694   27.3804   31.9180 C   0  0  0  0  0  0  0  0  0  0  0  0
   42.6825   28.3336   32.6520 C   0  0  0  0  0  0  0  0  0  0  0  0
   41.6721   28.8124   31.8326 N   0  0  0  0  0  0  0  0  0  0  0  0
   42.9286   28.7760   34.0003 C   0  0  0  0  0  0  0  0  0  0  0  0
   42.2056   29.7200   34.6507 C   0  0  0  0  0  0  0  0  0  0  0  0
   42.4593   30.1486   36.0101 C   0  0  0  0  0  0  0  0  0  0  0  0
   41.5659   31.0427   36.4091 C   0  0  0  0  0  0  0  0  0  0  0  0
   40.7572   31.2207   35.1947 C   0  0  0  0  0  0  0  0  0  0  0  0
   41.1170   30.4519   34.1962 N   0  0  0  0  0  0  0  0  0  0  0  0
   39.6530   32.2411   35.2579 C   0  0  0  0  0  0  0  0  0  0  0  0
   38.9037   32.4712   34.1626 C   0  0  0  0  0  0  0  0  0  0  0  0
   37.8102   33.4344   34.0736 C   0  0  0  0  0  0  0  0  0  0  0  0
   37.2536   33.3545   32.8545 C   0  0  0  0  0  0  0  0  0  0  0  0
   37.9753   32.3580   32.0622 C   0  0  0  0  0  0  0  0  0  0  0  0
   38.9455   31.8941   32.9167 N   0  0  0  0  0  0  0  0  0  0  0  0
   41.0126   29.4966   32.0897 H   0  0  0  0  0  0  0  0  0  0  0  0
   39.6080   31.2125   32.6605 H   0  0  0  0  0  0  0  0  0  0  0  0
   40.9921   27.6448   28.2445 C   0  0  0  0  0  0  0  0  0  0  0  0
   41.7928   28.1161   27.1925 C   0  0  0  0  0  0  0  0  0  0  0  0
   42.3826   29.3180   27.2795 F   0  0  0  0  0  0  0  0  0  0  0  0
   41.9614   27.3695   26.0296 C   0  0  0  0  0  0  0  0  0  0  0  0
   42.6931   27.8611   25.0201 F   0  0  0  0  0  0  0  0  0  0  0  0
   41.3640   26.1240   25.9094 C   0  0  0  0  0  0  0  0  0  0  0  0
   41.5345   25.4026   24.7930 F   0  0  0  0  0  0  0  0  0  0  0  0
   40.5851   25.6291   26.9445 C   0  0  0  0  0  0  0  0  0  0  0  0
   40.0183   24.4195   26.8352 F   0  0  0  0  0  0  0  0  0  0  0  0
   40.3899   26.3864   28.0969 C   0  0  0  0  0  0  0  0  0  0  0  0
   39.6205   25.8852   29.0749 F   0  0  0  0  0  0  0  0  0  0  0  0
   44.0853   28.1658   34.7370 C   0  0  0  0  0  0  0  0  0  0  0  0
   45.3629   28.7437   34.7099 C   0  0  0  0  0  0  0  0  0  0  0  0
   45.5920   29.8407   33.9723 F   0  0  0  0  0  0  0  0  0  0  0  0
   46.4214   28.1721   35.4112 C   0  0  0  0  0  0  0  0  0  0  0  0
   47.6444   28.7151   35.3341 F   0  0  0  0  0  0  0  0  0  0  0  0
   46.2160   27.0347   36.1780 C   0  0  0  0  0  0  0  0  0  0  0  0
   47.2346   26.4904   36.8577 F   0  0  0  0  0  0  0  0  0  0  0  0
   44.9565   26.4575   36.2340 C   0  0  0  0  0  0  0  0  0  0  0  0
   44.7532   25.3658   36.9844 F   0  0  0  0  0  0  0  0  0  0  0  0
   43.9029   27.0095   35.5110 C   0  0  0  0  0  0  0  0  0  0  0  0
   42.6989   26.4214   35.5751 F   0  0  0  0  0  0  0  0  0  0  0  0
   39.3914   33.0009   36.5083 C   0  0  0  0  0  0  0  0  0  0  0  0
   38.4601   32.5424   37.4503 C   0  0  0  0  0  0  0  0  0  0  0  0
   37.7808   31.4086   37.2224 F   0  0  0  0  0  0  0  0  0  0  0  0
   38.1891   33.2696   38.6075 C   0  0  0  0  0  0  0  0  0  0  0  0
   37.2580   32.8337   39.4669 F   0  0  0  0  0  0  0  0  0  0  0  0
   38.8671   34.4523   38.8610 C   0  0  0  0  0  0  0  0  0  0  0  0
   38.6076   35.1503   39.9749 F   0  0  0  0  0  0  0  0  0  0  0  0
   39.8082   34.9151   37.9538 C   0  0  0  0  0  0  0  0  0  0  0  0
   40.4756   36.0503   38.2015 F   0  0  0  0  0  0  0  0  0  0  0  0
   40.0586   34.2038   36.7823 C   0  0  0  0  0  0  0  0  0  0  0  0
   40.9624   34.6834   35.9154 F   0  0  0  0  0  0  0  0  0  0  0  0
   34.3117   33.8988   28.9230 C   0  0  0  0  0  0  0  0  0  0  0  0
   35.5808   34.4742   28.8033 C   0  0  0  0  0  0  0  0  0  0  0  0
   36.6894   33.8447   29.3759 C   0  0  0  0  0  0  0  0  0  0  0  0
   36.5327   32.6537   30.1029 C   0  0  0  0  0  0  0  0  0  0  0  0
   35.2602   32.0669   30.1831 C   0  0  0  0  0  0  0  0  0  0  0  0
   34.1661   32.6607   29.5549 C   0  0  0  0  0  0  0  0  0  0  0  0
   32.8459   35.8907   28.7604 N   0  0  0  0  0  0  0  0  0  0  0  0
   33.1482   34.6154   28.3548 C   0  0  0  0  0  0  0  0  0  0  0  0
   32.4624   34.0653   27.4919 O   0  0  0  0  0  0  0  0  0  0  0  0
   32.0011   36.2527   28.4075 H   0  0  0  0  0  0  0  0  0  0  0  0
   33.5861   36.7886   29.6339 C   0  0  0  0  0  0  0  0  0  0  0  0
   32.9827   36.8851   31.0320 C   0  0  0  0  0  0  0  0  0  0  0  0
   33.9879   37.0875   32.1678 C   0  0  0  0  0  0  0  0  0  0  0  0
   34.3797   35.8245   32.9415 C   0  0  0  0  0  0  0  0  0  0  0  0
   33.9931   33.3450   33.4117 C   0  0  0  0  0  0  0  0  0  0  0  0
   33.6245   34.5490   32.5591 C   0  0  0  0  0  0  0  0  0  0  0  0
 74 75  1  0  0  0
 75 73  1  0  0  0
 73 72  1  0  0  0
 72 71  1  0  0  0
 71 70  1  0  0  0
 70 66  1  0  0  0
 66 67  1  0  0  0
 66 69  1  0  0  0
 67 68  2  0  0  0
 67 60  1  0  0  0
 60 61  1  0  0  0
 60 65  2  0  0  0
 61 62  2  0  0  0
 62 63  1  0  0  0
 63 64  2  0  0  0
 63  1  1  0  0  0
 64 65  1  0  0  0
  1  2  1  0  0  0
  1 23  2  0  0  0
  2  3  1  0  0  0
  2  6  2  0  0  0
  3  4  2  0  0  0
  4  5  1  0  0  0
  5  6  1  0  0  0
  5  7  2  0  0  0
  7 27  1  0  0  0
  7  8  1  0  0  0
 27 28  1  0  0  0
 27 36  2  0  0  0
 28 29  1  0  0  0
 28 30  2  0  0  0
 30 31  1  0  0  0
 30 32  1  0  0  0
 32 33  1  0  0  0
 32 34  2  0  0  0
 34 35  1  0  0  0
 34 36  1  0  0  0
 36 37  1  0  0  0
  8  9  2  0  0  0
  8 12  1  0  0  0
  9 10  1  0  0  0
 10 11  2  0  0  0
 11 12  1  0  0  0
 11 13  1  0  0  0
 12 25  1  0  0  0
 13 38  1  0  0  0
 13 14  2  0  0  0
 38 39  1  0  0  0
 38 47  2  0  0  0
 39 40  1  0  0  0
 39 41  2  0  0  0
 41 42  1  0  0  0
 41 43  1  0  0  0
 43 44  1  0  0  0
 43 45  2  0  0  0
 45 46  1  0  0  0
 45 47  1  0  0  0
 47 48  1  0  0  0
 14 15  1  0  0  0
 14 18  1  0  0  0
 15 16  2  0  0  0
 16 17  1  0  0  0
 17 18  2  0  0  0
 17 19  1  0  0  0
 19 49  1  0  0  0
 19 20  2  0  0  0
 49 50  1  0  0  0
 49 58  2  0  0  0
 50 51  1  0  0  0
 50 52  2  0  0  0
 52 53  1  0  0  0
 52 54  1  0  0  0
 54 55  1  0  0  0
 54 56  2  0  0  0
 56 57  1  0  0  0
 56 58  1  0  0  0
 58 59  1  0  0  0
 20 21  1  0  0  0
 20 24  1  0  0  0
 21 22  2  0  0  0
 22 23  1  0  0  0
 23 24  1  0  0  0
 24 26  1  0  0  0
M  END
> <minimizedAffinity>
-9.88925

$$$$
ligands/25-ref


 75 83  0  0  0  0  0  0  0  0999 V2000
    2.7769   11.2248   37.7596 C   0  0  0  0  0  0  0  0  0  0  0  0
    1.4383   10.8455   37.1897 C   0  0  0  0  0  0  0  0  0  0  0  0
    0.4440   11.9228   37.0692 C   0  0  0  0  0  0  0  0  0  0  0  0
   -0.6209   11.2620   36.6345 C   0  0  0  0  0  0  0  0  0  0  0  0
   -0.3061    9.8684   36.3889 C   0  0  0  0  0  0  0  0  0  0  0  0
    1.0072    9.6729   36.7954 N   0  0  0  0  0  0  0  0  0  0  0  0
   -1.1638    8.9748   35.8388 C   0  0  0  0  0  0  0  0  0  0  0  0
   -0.8462    7.5946   35.5804 C   0  0  0  0  0  0  0  0  0  0  0  0
   -1.6361    6.6221   34.9917 C   0  0  0  0  0  0  0  0  0  0  0  0
   -0.9208    5.4200   34.9854 C   0  0  0  0  0  0  0  0  0  0  0  0
    0.3329    5.6544   35.5261 C   0  0  0  0  0  0  0  0  0  0  0  0
    0.3619    6.9902   35.8956 N   0  0  0  0  0  0  0  0  0  0  0  0
    1.4243    4.7297   35.6937 C   0  0  0  0  0  0  0  0  0  0  0  0
    2.6273    5.0401   36.2355 C   0  0  0  0  0  0  0  0  0  0  0  0
    3.7127    4.0973   36.4058 C   0  0  0  0  0  0  0  0  0  0  0  0
    4.7496    4.6590   37.0107 C   0  0  0  0  0  0  0  0  0  0  0  0
    4.2939    6.0487   37.1579 C   0  0  0  0  0  0  0  0  0  0  0  0
    3.0744    6.2591   36.7267 N   0  0  0  0  0  0  0  0  0  0  0  0
    5.2677    7.0218   37.7658 C   0  0  0  0  0  0  0  0  0  0  0  0
    4.9160    8.3159   37.8911 C   0  0  0  0  0  0  0  0  0  0  0  0
    5.7572    9.3701   38.4499 C   0  0  0  0  0  0  0  0  0  0  0  0
    5.0639   10.5195   38.4709 C   0  0  0  0  0  0  0  0  0  0  0  0
    3.7391   10.2910   37.8927 C   0  0  0  0  0  0  0  0  0  0  0  0
    3.7453    8.9569   37.5661 N   0  0  0  0  0  0  0  0  0  0  0  0
    1.1267    7.4429   36.3189 H   0  0  0  0  0  0  0  0  0  0  0  0
    2.9829    8.5030   37.1396 H   0  0  0  0  0  0  0  0  0  0  0  0
   -2.5324    9.4681   35.4675 C   0  0  0  0  0  0  0  0  0  0  0  0
   -2.8181    9.9267   34.1722 C   0  0  0  0  0  0  0  0  0  0  0  0
   -1.8490    9.9803   33.2461 F   0  0  0  0  0  0  0  0  0  0  0  0
   -4.0945   10.3674   33.8327 C   0  0  0  0  0  0  0  0  0  0  0  0
   -4.3317   10.8442   32.6029 F   0  0  0  0  0  0  0  0  0  0  0  0
   -5.1170   10.3250   34.7683 C   0  0  0  0  0  0  0  0  0  0  0  0
   -6.3472   10.7413   34.4375 F   0  0  0  0  0  0  0  0  0  0  0  0
   -4.8626    9.8566   36.0485 C   0  0  0  0  0  0  0  0  0  0  0  0
   -5.8533    9.8023   36.9496 F   0  0  0  0  0  0  0  0  0  0  0  0
   -3.5801    9.4431   36.4001 C   0  0  0  0  0  0  0  0  0  0  0  0
   -3.3634    9.0072   37.6502 F   0  0  0  0  0  0  0  0  0  0  0  0
    1.2284    3.3212   35.2132 C   0  0  0  0  0  0  0  0  0  0  0  0
    0.6615    2.3354   36.0341 C   0  0  0  0  0  0  0  0  0  0  0  0
    0.3259    2.6229   37.3009 F   0  0  0  0  0  0  0  0  0  0  0  0
    0.4736    1.0371   35.5671 C   0  0  0  0  0  0  0  0  0  0  0  0
   -0.0271    0.0995   36.3835 F   0  0  0  0  0  0  0  0  0  0  0  0
    0.8162    0.7089   34.2637 C   0  0  0  0  0  0  0  0  0  0  0  0
    0.6279   -0.5394   33.8142 F   0  0  0  0  0  0  0  0  0  0  0  0
    1.3608    1.6729   33.4290 C   0  0  0  0  0  0  0  0  0  0  0  0
    1.6808    1.3609   32.1655 F   0  0  0  0  0  0  0  0  0  0  0  0
    1.5770    2.9641   33.9017 C   0  0  0  0  0  0  0  0  0  0  0  0
    2.1170    3.8717   33.0744 F   0  0  0  0  0  0  0  0  0  0  0  0
    6.6107    6.5714   38.2158 C   0  0  0  0  0  0  0  0  0  0  0  0
    6.7680    5.8455   39.4046 C   0  0  0  0  0  0  0  0  0  0  0  0
    5.6976    5.5593   40.1604 F   0  0  0  0  0  0  0  0  0  0  0  0
    8.0294    5.4507   39.8454 C   0  0  0  0  0  0  0  0  0  0  0  0
    8.1561    4.8011   41.0106 F   0  0  0  0  0  0  0  0  0  0  0  0
    9.1544    5.7456   39.0902 C   0  0  0  0  0  0  0  0  0  0  0  0
   10.3670    5.3640   39.5136 F   0  0  0  0  0  0  0  0  0  0  0  0
    9.0214    6.4445   37.9000 C   0  0  0  0  0  0  0  0  0  0  0  0
   10.1044    6.7195   37.1603 F   0  0  0  0  0  0  0  0  0  0  0  0
    7.7637    6.8653   37.4732 C   0  0  0  0  0  0  0  0  0  0  0  0
    7.6670    7.5533   36.3262 F   0  0  0  0  0  0  0  0  0  0  0  0
    3.5886   15.1725   39.2345 C   0  0  0  0  0  0  0  0  0  0  0  0
    3.9009   14.8502   37.9099 C   0  0  0  0  0  0  0  0  0  0  0  0
    3.6028   13.5789   37.4118 C   0  0  0  0  0  0  0  0  0  0  0  0
    3.0225   12.6085   38.2443 C   0  0  0  0  0  0  0  0  0  0  0  0
    2.6793   12.9565   39.5601 C   0  0  0  0  0  0  0  0  0  0  0  0
    2.9162   14.2456   40.0358 C   0  0  0  0  0  0  0  0  0  0  0  0
    5.0757   16.6622   40.5429 N   0  0  0  0  0  0  0  0  0  0  0  0
    3.9662   16.5069   39.7510 C   0  0  0  0  0  0  0  0  0  0  0  0
    3.2873   17.4878   39.4436 O   0  0  0  0  0  0  0  0  0  0  0  0
    5.1954   17.5624   40.9233 H   0  0  0  0  0  0  0  0  0  0  0  0
    6.1021   15.6966   40.9051 C   0  0  0  0  0  0  0  0  0  0  0  0
    7.4166   15.9241   40.1644 C   0  0  0  0  0  0  0  0  0  0  0  0
    8.0232   14.6821   39.5081 C   0  0  0  0  0  0  0  0  0  0  0  0
    7.1164   13.4483   39.4551 C   0  0  0  0  0  0  0  0  0  0  0  0
    6.1270   12.0520   41.3498 C   0  0  0  0  0  0  0  0  0  0  0  0
    7.3653   12.3930   40.5359 C   0  0  0  0  0  0  0  0  0  0  0  0
 74 75  1  0  0  0
 75 73  1  0  0  0
 73 72  1  0  0  0
 72 71  1  0  0  0
 71 70  1  0  0  0
 70 66  1  0  0  0
 66 67  1  0  0  0
 66 69  1  0  0  0
 67 68  2  0  0  0
 67 60  1  0  0  0
 60 61  1  0  0  0
 60 65  2  0  0  0
 61 62  2  0  0  0
 62 63  1  0  0  0
 63 64  2  0  0  0
 63  1  1  0  0  0
 64 65  1  0  0  0
  1  2  1  0  0  0
  1 23  2  0  0  0
  2  3  1  0  0  0
  2  6  2  0  0  0
  3  4  2  0  0  0
  4  5  1  0  0  0
  5  6  1  0  0  0
  5  7  2  0  0  0
  7 27  1  0  0  0
  7  8  1  0  0  0
 27 28  1  0  0  0
 27 36  2  0  0  0
 28 29  1  0  0  0
 28 30  2  0  0  0
 30 31  1  0  0  0
 30 32  1  0  0  0
 32 33  1  0  0  0
 32 34  2  0  0  0
 34 35  1  0  0  0
 34 36  1  0  0  0
 36 37  1  0  0  0
  8  9  2  0  0  0
  8 12  1  0  0  0
  9 10  1  0  0  0
 10 11  2  0  0  0
 11 12  1  0  0  0
 11 13  1  0  0  0
 12 25  1  0  0  0
 13 38  1  0  0  0
 13 14  2  0  0  0
 38 39  1  0  0  0
 38 47  2  0  0  0
 39 40  1  0  0  0
 39 41  2  0  0  0
 41 42  1  0  0  0
 41 43  1  0  0  0
 43 44  1  0  0  0
 43 45  2  0  0  0
 45 46  1  0  0  0
 45 47  1  0  0  0
 47 48  1  0  0  0
 14 15  1  0  0  0
 14 18  1  0  0  0
 15 16  2  0  0  0
 16 17  1  0  0  0
 17 18  2  0  0  0
 17 19  1  0  0  0
 19 49  1  0  0  0
 19 20  2  0  0  0
 49 50  1  0  0  0
 49 58  2  0  0  0
 50 51  1  0  0  0
 50 52  2  0  0  0
 52 53  1  0  0  0
 52 54  1  0  0  0
 54 55  1  0  0  0
 54 56  2  0  0  0
 56 57  1  0  0  0
 56 58  1  0  0  0
 58 59  1  0  0  0
 20 21  1  0  0  0
 20 24  1  0  0  0
 21 22  2  0  0  0
 22 23  1  0  0  0
 23 24  1  0  0  0
 24 26  1  0  0  0
M  END
> <minimizedAffinity>
-9.79155

$$$$
ligands/25-ref


 75 83  0  0  0  0  0  0  0  0999 V2000
   37.6447   31.7059   30.9418 C   0  0  0  0  0  0  0  0  0  0  0  0
   38.0978   32.0531   32.3328 C   0  0  0  0  0  0  0  0  0  0  0  0
   37.3112   33.0699   33.0476 C   0  0  0  0  0  0  0  0  0  0  0  0
   38.0034   33.2085   34.1708 C   0  0  0  0  0  0  0  0  0  0  0  0
   39.1048   32.2675   34.2245 C   0  0  0  0  0  0  0  0  0  0  0  0
   39.1202   31.5933   33.0107 N   0  0  0  0  0  0  0  0  0  0  0  0
   39.9186   32.1014   35.2954 C   0  0  0  0  0  0  0  0  0  0  0  0
   41.0028   31.1560   35.3549 C   0  0  0  0  0  0  0  0  0  0  0  0
   41.8586   30.8884   36.4095 C   0  0  0  0  0  0  0  0  0  0  0  0
   42.7782   29.9198   35.9936 C   0  0  0  0  0  0  0  0  0  0  0  0
   42.4658   29.5487   34.6961 C   0  0  0  0  0  0  0  0  0  0  0  0
   41.3805   30.3215   34.3132 N   0  0  0  0  0  0  0  0  0  0  0  0
   43.1084   28.5625   33.8661 C   0  0  0  0  0  0  0  0  0  0  0  0
   42.7392   28.2566   32.5983 C   0  0  0  0  0  0  0  0  0  0  0  0
   43.4005   27.2686   31.7723 C   0  0  0  0  0  0  0  0  0  0  0  0
   42.8649   27.2153   30.5611 C   0  0  0  0  0  0  0  0  0  0  0  0
   41.7649   28.1833   30.6771 C   0  0  0  0  0  0  0  0  0  0  0  0
   41.7055   28.7872   31.8386 N   0  0  0  0  0  0  0  0  0  0  0  0
   40.8726   28.3442   29.4760 C   0  0  0  0  0  0  0  0  0  0  0  0
   39.8272   29.1910   29.5394 C   0  0  0  0  0  0  0  0  0  0  0  0
   38.8749   29.4403   28.4614 C   0  0  0  0  0  0  0  0  0  0  0  0
   38.0030   30.3820   28.8555 C   0  0  0  0  0  0  0  0  0  0  0  0
   38.3133   30.7777   30.2298 C   0  0  0  0  0  0  0  0  0  0  0  0
   39.4041   30.0102   30.5577 N   0  0  0  0  0  0  0  0  0  0  0  0
   40.9426   30.2836   33.4323 H   0  0  0  0  0  0  0  0  0  0  0  0
   39.8414   30.0439   31.4391 H   0  0  0  0  0  0  0  0  0  0  0  0
   39.6590   32.9579   36.5009 C   0  0  0  0  0  0  0  0  0  0  0  0
   40.3400   34.1692   36.6981 C   0  0  0  0  0  0  0  0  0  0  0  0
   41.2825   34.5629   35.8283 F   0  0  0  0  0  0  0  0  0  0  0  0
   40.0810   34.9645   37.8110 C   0  0  0  0  0  0  0  0  0  0  0  0
   40.7769   36.0939   38.0018 F   0  0  0  0  0  0  0  0  0  0  0  0
   39.1132   34.5841   38.7282 C   0  0  0  0  0  0  0  0  0  0  0  0
   38.8588   35.3552   39.7944 F   0  0  0  0  0  0  0  0  0  0  0  0
   38.4134   33.4013   38.5430 C   0  0  0  0  0  0  0  0  0  0  0  0
   37.4681   33.0393   39.4215 F   0  0  0  0  0  0  0  0  0  0  0  0
   38.6910   32.5886   37.4467 C   0  0  0  0  0  0  0  0  0  0  0  0
   38.0056   31.4444   37.3026 F   0  0  0  0  0  0  0  0  0  0  0  0
   44.2590   27.7970   34.4519 C   0  0  0  0  0  0  0  0  0  0  0  0
   45.5754   28.2750   34.3774 C   0  0  0  0  0  0  0  0  0  0  0  0
   45.8430   29.4171   33.7264 F   0  0  0  0  0  0  0  0  0  0  0  0
   46.6291   27.5588   34.9393 C   0  0  0  0  0  0  0  0  0  0  0  0
   47.8848   28.0111   34.8162 F   0  0  0  0  0  0  0  0  0  0  0  0
   46.3837   26.3719   35.6137 C   0  0  0  0  0  0  0  0  0  0  0  0
   47.3985   25.6879   36.1597 F   0  0  0  0  0  0  0  0  0  0  0  0
   45.0874   25.8905   35.7155 C   0  0  0  0  0  0  0  0  0  0  0  0
   44.8468   24.7504   36.3777 F   0  0  0  0  0  0  0  0  0  0  0  0
   44.0354   26.5889   35.1300 C   0  0  0  0  0  0  0  0  0  0  0  0
   42.7938   26.0916   35.2346 F   0  0  0  0  0  0  0  0  0  0  0  0
   41.1273   27.5722   28.2317 C   0  0  0  0  0  0  0  0  0  0  0  0
   40.5152   26.3300   28.0147 C   0  0  0  0  0  0  0  0  0  0  0  0
   39.6956   25.8165   28.9439 F   0  0  0  0  0  0  0  0  0  0  0  0
   40.7778   25.5893   26.8642 C   0  0  0  0  0  0  0  0  0  0  0  0
   40.2178   24.3824   26.7051 F   0  0  0  0  0  0  0  0  0  0  0  0
   41.6320   26.0905   25.8936 C   0  0  0  0  0  0  0  0  0  0  0  0
   41.8828   25.3787   24.7865 F   0  0  0  0  0  0  0  0  0  0  0  0
   42.2330   27.3267   26.0766 C   0  0  0  0  0  0  0  0  0  0  0  0
   43.0483   27.8209   25.1351 F   0  0  0  0  0  0  0  0  0  0  0  0
   41.9939   28.0548   27.2402 C   0  0  0  0  0  0  0  0  0  0  0  0
   42.6013   29.2400   27.3974 F   0  0  0  0  0  0  0  0  0  0  0  0
   34.3905   33.7441   29.0249 C   0  0  0  0  0  0  0  0  0  0  0  0
   34.1255   32.6867   29.9011 C   0  0  0  0  0  0  0  0  0  0  0  0
   35.1782   32.0448   30.5590 C   0  0  0  0  0  0  0  0  0  0  0  0
   36.5065   32.4315   30.3191 C   0  0  0  0  0  0  0  0  0  0  0  0
   36.7563   33.5187   29.4672 C   0  0  0  0  0  0  0  0  0  0  0  0
   35.7013   34.2015   28.8631 C   0  0  0  0  0  0  0  0  0  0  0  0
   32.8658   35.6494   28.5915 N   0  0  0  0  0  0  0  0  0  0  0  0
   33.2616   34.3684   28.2999 C   0  0  0  0  0  0  0  0  0  0  0  0
   32.6910   33.7356   27.4103 O   0  0  0  0  0  0  0  0  0  0  0  0
   32.0467   35.9484   28.1343 H   0  0  0  0  0  0  0  0  0  0  0  0
   33.4746   36.6323   29.4748 C   0  0  0  0  0  0  0  0  0  0  0  0
   32.8458   36.6486   30.8650 C   0  0  0  0  0  0  0  0  0  0  0  0
   33.5887   37.4819   31.9113 C   0  0  0  0  0  0  0  0  0  0  0  0
   34.0408   36.7256   33.1646 C   0  0  0  0  0  0  0  0  0  0  0  0
   33.9926   34.1780   33.3258 C   0  0  0  0  0  0  0  0  0  0  0  0
   34.7837   35.4103   32.9160 C   0  0  0  0  0  0  0  0  0  0  0  0
 74 75  1  0  0  0
 75 73  1  0  0  0
 73 72  1  0  0  0
 72 71  1  0  0  0
 71 70  1  0  0  0
 70 66  1  0  0  0
 66 67  1  0  0  0
 66 69  1  0  0  0
 67 68  2  0  0  0
 67 60  1  0  0  0
 60 61  1  0  0  0
 60 65  2  0  0  0
 61 62  2  0  0  0
 62 63  1  0  0  0
 63 64  2  0  0  0
 63  1  1  0  0  0
 64 65  1  0  0  0
  1  2  1  0  0  0
  1 23  2  0  0  0
  2  3  1  0  0  0
  2  6  2  0  0  0
  3  4  2  0  0  0
  4  5  1  0  0  0
  5  6  1  0  0  0
  5  7  2  0  0  0
  7 27  1  0  0  0
  7  8  1  0  0  0
 27 28  1  0  0  0
 27 36  2  0  0  0
 28 29  1  0  0  0
 28 30  2  0  0  0
 30 31  1  0  0  0
 30 32  1  0  0  0
 32 33  1  0  0  0
 32 34  2  0  0  0
 34 35  1  0  0  0
 34 36  1  0  0  0
 36 37  1  0  0  0
  8  9  2  0  0  0
  8 12  1  0  0  0
  9 10  1  0  0  0
 10 11  2  0  0  0
 11 12  1  0  0  0
 11 13  1  0  0  0
 12 25  1  0  0  0
 13 38  1  0  0  0
 13 14  2  0  0  0
 38 39  1  0  0  0
 38 47  2  0  0  0
 39 40  1  0  0  0
 39 41  2  0  0  0
 41 42  1  0  0  0
 41 43  1  0  0  0
 43 44  1  0  0  0
 43 45  2  0  0  0
 45 46  1  0  0  0
 45 47  1  0  0  0
 47 48  1  0  0  0
 14 15  1  0  0  0
 14 18  1  0  0  0
 15 16  2  0  0  0
 16 17  1  0  0  0
 17 18  2  0  0  0
 17 19  1  0  0  0
 19 49  1  0  0  0
 19 20  2  0  0  0
 49 50  1  0  0  0
 49 58  2  0  0  0
 50 51  1  0  0  0
 50 52  2  0  0  0
 52 53  1  0  0  0
 52 54  1  0  0  0
 54 55  1  0  0  0
 54 56  2  0  0  0
 56 57  1  0  0  0
 56 58  1  0  0  0
 58 59  1  0  0  0
 20 21  1  0  0  0
 20 24  1  0  0  0
 21 22  2  0  0  0
 22 23  1  0  0  0
 23 24  1  0  0  0
 24 26  1  0  0  0
M  END
> <minimizedAffinity>
-9.76604

$$$$
ligands/25-ref


 75 83  0  0  0  0  0  0  0  0999 V2000
   37.7055   31.9675   30.7715 C   0  0  0  0  0  0  0  0  0  0  0  0
   38.5085   30.8861   30.1033 C   0  0  0  0  0  0  0  0  0  0  0  0
   38.1399   30.5512   28.7194 C   0  0  0  0  0  0  0  0  0  0  0  0
   38.9500   29.5328   28.4616 C   0  0  0  0  0  0  0  0  0  0  0  0
   39.8558   29.2934   29.5678 C   0  0  0  0  0  0  0  0  0  0  0  0
   39.4932   30.1679   30.5837 N   0  0  0  0  0  0  0  0  0  0  0  0
   40.8662   28.3903   29.5488 C   0  0  0  0  0  0  0  0  0  0  0  0
   41.7756   28.1634   30.6415 C   0  0  0  0  0  0  0  0  0  0  0  0
   42.8537   27.2972   30.7024 C   0  0  0  0  0  0  0  0  0  0  0  0
   43.4202   27.3904   31.9779 C   0  0  0  0  0  0  0  0  0  0  0  0
   42.7252   28.3497   32.6961 C   0  0  0  0  0  0  0  0  0  0  0  0
   41.7132   28.8091   31.8676 N   0  0  0  0  0  0  0  0  0  0  0  0
   42.9655   28.8139   34.0382 C   0  0  0  0  0  0  0  0  0  0  0  0
   42.2346   29.7626   34.6729 C   0  0  0  0  0  0  0  0  0  0  0  0
   42.4825   30.2132   36.0262 C   0  0  0  0  0  0  0  0  0  0  0  0
   41.5821   31.1069   36.4100 C   0  0  0  0  0  0  0  0  0  0  0  0
   40.7747   31.2611   35.1914 C   0  0  0  0  0  0  0  0  0  0  0  0
   41.1419   30.4799   34.2053 N   0  0  0  0  0  0  0  0  0  0  0  0
   39.6633   32.2746   35.2372 C   0  0  0  0  0  0  0  0  0  0  0  0
   38.9147   32.4831   34.1370 C   0  0  0  0  0  0  0  0  0  0  0  0
   37.8148   33.4371   34.0314 C   0  0  0  0  0  0  0  0  0  0  0  0
   37.2612   33.3351   32.8126 C   0  0  0  0  0  0  0  0  0  0  0  0
   37.9915   32.3319   32.0368 C   0  0  0  0  0  0  0  0  0  0  0  0
   38.9631   31.8876   32.9000 N   0  0  0  0  0  0  0  0  0  0  0  0
   41.0485   29.4925   32.1132 H   0  0  0  0  0  0  0  0  0  0  0  0
   39.6309   31.2069   32.6554 H   0  0  0  0  0  0  0  0  0  0  0  0
   41.0488   27.5831   28.2961 C   0  0  0  0  0  0  0  0  0  0  0  0
   40.4021   26.3500   28.1196 C   0  0  0  0  0  0  0  0  0  0  0  0
   39.6403   25.8411   29.0997 F   0  0  0  0  0  0  0  0  0  0  0  0
   40.5650   25.6160   26.9478 C   0  0  0  0  0  0  0  0  0  0  0  0
   39.9744   24.4197   26.8211 F   0  0  0  0  0  0  0  0  0  0  0  0
   41.3467   26.1151   25.9171 C   0  0  0  0  0  0  0  0  0  0  0  0
   41.4955   25.4116   24.7862 F   0  0  0  0  0  0  0  0  0  0  0  0
   41.9789   27.3410   26.0612 C   0  0  0  0  0  0  0  0  0  0  0  0
   42.7236   27.8309   25.0603 F   0  0  0  0  0  0  0  0  0  0  0  0
   41.8422   28.0638   27.2437 C   0  0  0  0  0  0  0  0  0  0  0  0
   42.4767   29.2403   27.3571 F   0  0  0  0  0  0  0  0  0  0  0  0
   44.1249   28.2229   34.7862 C   0  0  0  0  0  0  0  0  0  0  0  0
   43.9915   27.0499   35.5434 C   0  0  0  0  0  0  0  0  0  0  0  0
   42.7956   26.4527   35.6580 F   0  0  0  0  0  0  0  0  0  0  0  0
   45.0813   26.5073   36.2193 C   0  0  0  0  0  0  0  0  0  0  0  0
   44.9209   25.4116   36.9744 F   0  0  0  0  0  0  0  0  0  0  0  0
   46.3289   27.1058   36.1240 C   0  0  0  0  0  0  0  0  0  0  0  0
   47.3778   26.5778   36.7696 F   0  0  0  0  0  0  0  0  0  0  0  0
   46.4873   28.2557   35.3655 C   0  0  0  0  0  0  0  0  0  0  0  0
   47.6946   28.8283   35.2620 F   0  0  0  0  0  0  0  0  0  0  0  0
   45.3940   28.8172   34.7123 C   0  0  0  0  0  0  0  0  0  0  0  0
   45.5759   29.9369   33.9962 F   0  0  0  0  0  0  0  0  0  0  0  0
   39.3939   33.0512   36.4755 C   0  0  0  0  0  0  0  0  0  0  0  0
   38.4723   32.5946   37.4279 C   0  0  0  0  0  0  0  0  0  0  0  0
   37.8096   31.4471   37.2212 F   0  0  0  0  0  0  0  0  0  0  0  0
   38.1936   33.3369   38.5736 C   0  0  0  0  0  0  0  0  0  0  0  0
   37.2718   32.9015   39.4432 F   0  0  0  0  0  0  0  0  0  0  0  0
   38.8545   34.5338   38.8053 C   0  0  0  0  0  0  0  0  0  0  0  0
   38.5877   35.2463   39.9081 F   0  0  0  0  0  0  0  0  0  0  0  0
   39.7858   34.9954   37.8875 C   0  0  0  0  0  0  0  0  0  0  0  0
   40.4367   36.1445   38.1141 F   0  0  0  0  0  0  0  0  0  0  0  0
   40.0436   34.2684   36.7272 C   0  0  0  0  0  0  0  0  0  0  0  0
   40.9376   34.7470   35.8496 F   0  0  0  0  0  0  0  0  0  0  0  0
   34.3192   33.7918   28.8680 C   0  0  0  0  0  0  0  0  0  0  0  0
   35.5674   34.4199   28.8107 C   0  0  0  0  0  0  0  0  0  0  0  0
   36.6823   33.8117   29.3943 C   0  0  0  0  0  0  0  0  0  0  0  0
   36.5509   32.5882   30.0704 C   0  0  0  0  0  0  0  0  0  0  0  0
   35.3009   31.9500   30.0877 C   0  0  0  0  0  0  0  0  0  0  0  0
   34.2037   32.5253   29.4478 C   0  0  0  0  0  0  0  0  0  0  0  0
   32.8047   35.7470   28.7057 N   0  0  0  0  0  0  0  0  0  0  0  0
   33.1460   34.4846   28.2905 C   0  0  0  0  0  0  0  0  0  0  0  0
   32.4875   33.9270   27.4113 O   0  0  0  0  0  0  0  0  0  0  0  0
   31.9561   36.0911   28.3442 H   0  0  0  0  0  0  0  0  0  0  0  0
   33.5084   36.6536   29.6002 C   0  0  0  0  0  0  0  0  0  0  0  0
   32.8685   36.7360   30.9829 C   0  0  0  0  0  0  0  0  0  0  0  0
   33.8286   37.0488   32.1325 C   0  0  0  0  0  0  0  0  0  0  0  0
   34.2288   35.8565   33.0074 C   0  0  0  0  0  0  0  0  0  0  0  0
   33.9906   33.3467   33.4109 C   0  0  0  0  0  0  0  0  0  0  0  0
   34.0051   34.4736   32.3900 C   0  0  0  0  0  0  0  0  0  0  0  0
 74 75  1  0  0  0
 75 73  1  0  0  0
 73 72  1  0  0  0
 72 71  1  0  0  0
 71 70  1  0  0  0
 70 66  1  0  0  0
 66 67  1  0  0  0
 66 69  1  0  0  0
 67 68  2  0  0  0
 67 60  1  0  0  0
 60 61  1  0  0  0
 60 65  2  0  0  0
 61 62  2  0  0  0
 62 63  1  0  0  0
 63 64  2  0  0  0
 63  1  1  0  0  0
 64 65  1  0  0  0
  1  2  1  0  0  0
  1 23  2  0  0  0
  2  3  1  0  0  0
  2  6  2  0  0  0
  3  4  2  0  0  0
  4  5  1  0  0  0
  5  6  1  0  0  0
  5  7  2  0  0  0
  7 27  1  0  0  0
  7  8  1  0  0  0
 27 28  1  0  0  0
 27 36  2  0  0  0
 28 29  1  0  0  0
 28 30  2  0  0  0
 30 31  1  0  0  0
 30 32  1  0  0  0
 32 33  1  0  0  0
 32 34  2  0  0  0
 34 35  1  0  0  0
 34 36  1  0  0  0
 36 37  1  0  0  0
  8  9  2  0  0  0
  8 12  1  0  0  0
  9 10  1  0  0  0
 10 11  2  0  0  0
 11 12  1  0  0  0
 11 13  1  0  0  0
 12 25  1  0  0  0
 13 38  1  0  0  0
 13 14  2  0  0  0
 38 39  1  0  0  0
 38 47  2  0  0  0
 39 40  1  0  0  0
 39 41  2  0  0  0
 41 42  1  0  0  0
 41 43  1  0  0  0
 43 44  1  0  0  0
 43 45  2  0  0  0
 45 46  1  0  0  0
 45 47  1  0  0  0
 47 48  1  0  0  0
 14 15  1  0  0  0
 14 18  1  0  0  0
 15 16  2  0  0  0
 16 17  1  0  0  0
 17 18  2  0  0  0
 17 19  1  0  0  0
 19 49  1  0  0  0
 19 20  2  0  0  0
 49 50  1  0  0  0
 49 58  2  0  0  0
 50 51  1  0  0  0
 50 52  2  0  0  0
 52 53  1  0  0  0
 52 54  1  0  0  0
 54 55  1  0  0  0
 54 56  2  0  0  0
 56 57  1  0  0  0
 56 58  1  0  0  0
 58 59  1  0  0  0
 20 21  1  0  0  0
 20 24  1  0  0  0
 21 22  2  0  0  0
 22 23  1  0  0  0
 23 24  1  0  0  0
 24 26  1  0  0  0
M  END
> <minimizedAffinity>
-9.75571

$$$$
ligands/25-ref


 75 83  0  0  0  0  0  0  0  0999 V2000
   25.9567   39.4142   46.5424 C   0  0  0  0  0  0  0  0  0  0  0  0
   25.0761   40.4415   47.1981 C   0  0  0  0  0  0  0  0  0  0  0  0
   25.6630   41.7732   47.4113 C   0  0  0  0  0  0  0  0  0  0  0  0
   24.6937   42.3948   48.0699 C   0  0  0  0  0  0  0  0  0  0  0  0
   23.5173   41.5553   48.1821 C   0  0  0  0  0  0  0  0  0  0  0  0
   23.8472   40.3219   47.6361 N   0  0  0  0  0  0  0  0  0  0  0  0
   22.3350   41.9596   48.7071 C   0  0  0  0  0  0  0  0  0  0  0  0
   21.1618   41.1308   48.8044 C   0  0  0  0  0  0  0  0  0  0  0  0
   19.9072   41.4629   49.2861 C   0  0  0  0  0  0  0  0  0  0  0  0
   19.0963   40.3250   49.2201 C   0  0  0  0  0  0  0  0  0  0  0  0
   19.8310   39.2968   48.6526 C   0  0  0  0  0  0  0  0  0  0  0  0
   21.0991   39.8021   48.4112 N   0  0  0  0  0  0  0  0  0  0  0  0
   19.4089   37.9529   48.3522 C   0  0  0  0  0  0  0  0  0  0  0  0
   20.1943   37.0004   47.7929 C   0  0  0  0  0  0  0  0  0  0  0  0
   19.7587   35.6502   47.5046 C   0  0  0  0  0  0  0  0  0  0  0  0
   20.7476   34.9189   47.0108 C   0  0  0  0  0  0  0  0  0  0  0  0
   21.8364   35.9030   46.9298 C   0  0  0  0  0  0  0  0  0  0  0  0
   21.5203   37.0880   47.3916 N   0  0  0  0  0  0  0  0  0  0  0  0
   23.1364   35.4301   46.3373 C   0  0  0  0  0  0  0  0  0  0  0  0
   24.1565   36.2996   46.2055 C   0  0  0  0  0  0  0  0  0  0  0  0
   25.4662   35.9868   45.6415 C   0  0  0  0  0  0  0  0  0  0  0  0
   26.2488   37.0747   45.7206 C   0  0  0  0  0  0  0  0  0  0  0  0
   25.4833   38.1744   46.3091 C   0  0  0  0  0  0  0  0  0  0  0  0
   24.2486   37.6250   46.5546 N   0  0  0  0  0  0  0  0  0  0  0  0
   21.8448   39.2932   48.0186 H   0  0  0  0  0  0  0  0  0  0  0  0
   23.5006   38.1330   46.9438 H   0  0  0  0  0  0  0  0  0  0  0  0
   22.2483   43.3716   49.2097 C   0  0  0  0  0  0  0  0  0  0  0  0
   22.5381   43.6919   50.5451 C   0  0  0  0  0  0  0  0  0  0  0  0
   22.8524   42.7234   51.4186 F   0  0  0  0  0  0  0  0  0  0  0  0
   22.4703   45.0067   50.9982 C   0  0  0  0  0  0  0  0  0  0  0  0
   22.7062   45.2818   52.2885 F   0  0  0  0  0  0  0  0  0  0  0  0
   22.1474   46.0297   50.1198 C   0  0  0  0  0  0  0  0  0  0  0  0
   22.0911   47.2958   50.5553 F   0  0  0  0  0  0  0  0  0  0  0  0
   21.8770   45.7392   48.7910 C   0  0  0  0  0  0  0  0  0  0  0  0
   21.5782   46.7287   47.9378 F   0  0  0  0  0  0  0  0  0  0  0  0
   21.9147   44.4217   48.3413 C   0  0  0  0  0  0  0  0  0  0  0  0
   21.6357   44.1720   47.0531 F   0  0  0  0  0  0  0  0  0  0  0  0
   17.9872   37.5810   48.6581 C   0  0  0  0  0  0  0  0  0  0  0  0
   17.0650   37.2978   47.6401 C   0  0  0  0  0  0  0  0  0  0  0  0
   17.4264   37.4056   46.3526 F   0  0  0  0  0  0  0  0  0  0  0  0
   15.7536   36.9400   47.9424 C   0  0  0  0  0  0  0  0  0  0  0  0
   14.8767   36.7187   46.9532 F   0  0  0  0  0  0  0  0  0  0  0  0
   15.3495   36.8257   49.2643 C   0  0  0  0  0  0  0  0  0  0  0  0
   14.0889   36.4744   49.5529 F   0  0  0  0  0  0  0  0  0  0  0  0
   16.2502   37.0830   50.2867 C   0  0  0  0  0  0  0  0  0  0  0  0
   15.8650   36.9608   51.5646 F   0  0  0  0  0  0  0  0  0  0  0  0
   17.5536   37.4691   49.9880 C   0  0  0  0  0  0  0  0  0  0  0  0
   18.3985   37.7233   50.9986 F   0  0  0  0  0  0  0  0  0  0  0  0
   23.2991   34.0225   45.8885 C   0  0  0  0  0  0  0  0  0  0  0  0
   22.7360   33.5792   44.6838 C   0  0  0  0  0  0  0  0  0  0  0  0
   22.0275   34.4277   43.9243 F   0  0  0  0  0  0  0  0  0  0  0  0
   22.8591   32.2523   44.2770 C   0  0  0  0  0  0  0  0  0  0  0  0
   22.2688   31.8436   43.1456 F   0  0  0  0  0  0  0  0  0  0  0  0
   23.5747   31.3508   45.0503 C   0  0  0  0  0  0  0  0  0  0  0  0
   23.6944   30.0753   44.6577 F   0  0  0  0  0  0  0  0  0  0  0  0
   24.1584   31.7712   46.2358 C   0  0  0  0  0  0  0  0  0  0  0  0
   24.8623   30.9067   46.9792 F   0  0  0  0  0  0  0  0  0  0  0  0
   24.0110   33.0907   46.6580 C   0  0  0  0  0  0  0  0  0  0  0  0
   24.5728   33.4654   47.8166 F   0  0  0  0  0  0  0  0  0  0  0  0
   30.0627   40.2094   45.5798 C   0  0  0  0  0  0  0  0  0  0  0  0
   29.0599   40.5384   44.6621 C   0  0  0  0  0  0  0  0  0  0  0  0
   27.7182   40.3188   44.9856 C   0  0  0  0  0  0  0  0  0  0  0  0
   27.3706   39.7356   46.2146 C   0  0  0  0  0  0  0  0  0  0  0  0
   28.3835   39.4453   47.1419 C   0  0  0  0  0  0  0  0  0  0  0  0
   29.7166   39.7265   46.8449 C   0  0  0  0  0  0  0  0  0  0  0  0
   32.1222   39.4676   44.4174 N   0  0  0  0  0  0  0  0  0  0  0  0
   31.4770   40.4011   45.1887 C   0  0  0  0  0  0  0  0  0  0  0  0
   32.0684   41.4223   45.5420 O   0  0  0  0  0  0  0  0  0  0  0  0
   33.0856   39.6246   44.2892 H   0  0  0  0  0  0  0  0  0  0  0  0
   31.5965   38.2805   43.7604 C   0  0  0  0  0  0  0  0  0  0  0  0
   31.5775   37.0582   44.6734 C   0  0  0  0  0  0  0  0  0  0  0  0
   30.1873   36.5352   45.0407 C   0  0  0  0  0  0  0  0  0  0  0  0
   29.1525   36.5480   43.9110 C   0  0  0  0  0  0  0  0  0  0  0  0
   27.8722   34.4703   43.1610 C   0  0  0  0  0  0  0  0  0  0  0  0
   29.1325   35.3083   43.0131 C   0  0  0  0  0  0  0  0  0  0  0  0
 74 75  1  0  0  0
 75 73  1  0  0  0
 73 72  1  0  0  0
 72 71  1  0  0  0
 71 70  1  0  0  0
 70 66  1  0  0  0
 66 67  1  0  0  0
 66 69  1  0  0  0
 67 68  2  0  0  0
 67 60  1  0  0  0
 60 61  1  0  0  0
 60 65  2  0  0  0
 61 62  2  0  0  0
 62 63  1  0  0  0
 63 64  2  0  0  0
 63  1  1  0  0  0
 64 65  1  0  0  0
  1  2  1  0  0  0
  1 23  2  0  0  0
  2  3  1  0  0  0
  2  6  2  0  0  0
  3  4  2  0  0  0
  4  5  1  0  0  0
  5  6  1  0  0  0
  5  7  2  0  0  0
  7 27  1  0  0  0
  7  8  1  0  0  0
 27 28  1  0  0  0
 27 36  2  0  0  0
 28 29  1  0  0  0
 28 30  2  0  0  0
 30 31  1  0  0  0
 30 32  1  0  0  0
 32 33  1  0  0  0
 32 34  2  0  0  0
 34 35  1  0  0  0
 34 36  1  0  0  0
 36 37  1  0  0  0
  8  9  2  0  0  0
  8 12  1  0  0  0
  9 10  1  0  0  0
 10 11  2  0  0  0
 11 12  1  0  0  0
 11 13  1  0  0  0
 12 25  1  0  0  0
 13 38  1  0  0  0
 13 14  2  0  0  0
 38 39  1  0  0  0
 38 47  2  0  0  0
 39 40  1  0  0  0
 39 41  2  0  0  0
 41 42  1  0  0  0
 41 43  1  0  0  0
 43 44  1  0  0  0
 43 45  2  0  0  0
 45 46  1  0  0  0
 45 47  1  0  0  0
 47 48  1  0  0  0
 14 15  1  0  0  0
 14 18  1  0  0  0
 15 16  2  0  0  0
 16 17  1  0  0  0
 17 18  2  0  0  0
 17 19  1  0  0  0
 19 49  1  0  0  0
 19 20  2  0  0  0
 49 50  1  0  0  0
 49 58  2  0  0  0
 50 51  1  0  0  0
 50 52  2  0  0  0
 52 53  1  0  0  0
 52 54  1  0  0  0
 54 55  1  0  0  0
 54 56  2  0  0  0
 56 57  1  0  0  0
 56 58  1  0  0  0
 58 59  1  0  0  0
 20 21  1  0  0  0
 20 24  1  0  0  0
 21 22  2  0  0  0
 22 23  1  0  0  0
 23 24  1  0  0  0
 24 26  1  0  0  0
M  END
> <minimizedAffinity>
-9.75391

$$$$
